     233
 i =       17, E =     -1123.3036787959
  C         8.4202046383        1.0804642751       -8.7519630597
  C         6.9653953656        0.6372958177       -8.6661212533
  O         6.2847860070        1.0033851285       -9.9239222345
  C         4.9541429140        0.6748644368       -9.9609164274
  C         3.9950912570        1.4609318617       -9.2861670171
  C         2.6507442133        1.0698832458       -9.3710111490
  C         2.2371110107       -0.0614618059      -10.1186150661
  C         3.1745196851       -0.8455191670      -10.8103922605
  C         4.5442542051       -0.4819813508      -10.7175395600
  O         5.5095201681       -1.2629112995      -11.2845644094
  C         5.7163983624       -1.0295327596      -12.7278339644
  C         6.7261424872       -2.0440401906      -13.2613760363
  C         0.7951177067       -0.2307961266       -9.8334170134
  N         0.0817686231       -1.2107044660      -10.4026445697
  C        -1.1662230698       -1.5177040439      -10.0214261079
  N        -1.9338345602       -0.9166680951       -9.0374218350
 Dy        -1.8298100706        1.3704847512       -8.0380912248
  N         0.3753490341        0.6985756405       -8.8995081373
  C         1.4864494470        1.4589228353       -8.5708150079
  N         1.6944905074        2.2072457079       -7.4744100763
  C         1.0416106880        1.9220020363       -6.3297570804
  C         1.7957825316        1.9307292623       -5.0793921957
  C         3.1284637462        2.3019889507       -4.8288271354
  C         3.7436677779        1.8368030216       -3.6484113461
  O         5.0402439109        2.1632079177       -3.3481220632
  C         6.0618106665        1.4357247524       -4.1071543572
  C         7.4331664355        1.9854990426       -3.7381593431
  C         2.9947990477        1.0344672541       -2.7155178512
  C         1.6341296831        0.6943925956       -2.9711050393
  C         1.0518115436        1.1357569108       -4.1729956302
  C        -0.1999351117        0.7736518739       -4.8881083836
  N        -1.1372507217       -0.0092906195       -4.3269397168
  C        -2.1653857992       -0.5246405212       -5.0151719486
  N        -2.4666647519       -0.3680269888       -6.3587171046
  C        -3.5317534095       -1.2168943786       -6.6326440880
  N        -3.9121798922       -1.7130602111       -7.8229442468
  C        -3.0655326548       -1.7065959620       -8.8680714848
  C        -3.1078200025       -2.7794411980       -9.8743265738
  C        -1.8694923382       -2.6937081282      -10.5625466405
  C        -1.4417827172       -3.7182242511      -11.4161046133
  C        -2.2796169260       -4.8493203608      -11.5654916721
  O        -1.8088898894       -5.9055670420      -12.2924006435
  C        -1.3676012879       -7.0375609203      -11.4420583972
  C        -0.9556206624       -8.2023937461      -12.3236849054
  C        -3.5881935107       -4.8889850731      -10.9529835801
  C        -3.9984945010       -3.8454771602      -10.0836115594
  O        -4.3782160229       -5.9863436989      -11.1575259795
  C        -5.4077114385       -5.8448954407      -12.2131978652
  C        -6.2650102720       -7.1023745771      -12.2510408515
  C        -4.0472796273       -1.8287642200       -5.4028284380
  C        -3.1104574127       -1.4804784615       -4.3924660563
  C        -3.0903388522       -2.1799806309       -3.1765713956
  C        -4.0525298848       -3.2035752957       -2.9759889043
  C        -5.1305259985       -3.4071183915       -3.9281895709
  C        -5.0830551800       -2.7478277947       -5.1795191366
  O        -6.1327065664       -4.3060836036       -3.7035425164
  C        -7.1260756139       -3.9353886442       -2.6588542241
  C        -8.1911144085       -5.0316658938       -2.5721223094
  O        -3.8888471217       -4.0385669014       -1.9078180654
  C        -3.4092940987       -5.3907311309       -2.3155635437
  C        -3.2060621851       -6.2497435458       -1.0810074504
  N        -0.1750041425        1.2743679057       -6.1777749379
  O         3.6742550029        0.5363742320       -1.6420139001
  C         3.2700404976        1.0385652748       -0.3175935419
  C         4.1131169676        0.3490828560        0.7432146087
  N        -4.0936687648        2.0431821035       -7.1902823864
  C        -5.3308834367        1.6225996737       -7.6242309555
  N        -5.7034956164        1.2834317110       -8.8681798691
  C        -4.8800656722        1.3092008813       -9.9277589932
  N        -3.4939459281        1.4167802542       -9.9155069685
  C        -3.0911644387        1.4811278798      -11.2298828461
  N        -1.8901777404        1.8099685507      -11.7307631928
  C        -1.0645446432        2.6267276255      -11.0654183921
  N        -1.2141434426        3.0369349637       -9.7441725316
  C        -0.5110035281        4.2092539297       -9.6116260136
  N        -0.3758545087        4.9713855603       -8.5208765639
  C        -1.0095361125        4.7072593909       -7.3672695453
  N        -1.8475827548        3.6432285504       -7.0696454343
  C        -2.3536868829        3.8614855971       -5.8005236622
  N        -3.3837096395        3.2498120865       -5.1917998026
  C        -4.2602349831        2.4995084060       -5.8841745895
  C        -5.6185187796        2.2212178678       -5.3976701821
  C        -6.3224711906        1.7337346719       -6.5343228524
  C        -7.7052426530        1.5221296603       -6.5411266570
  C        -8.4054715031        1.8011810569       -5.3378443971
  C        -7.7257436267        2.2309759055       -4.1891248943
  C        -6.3078923686        2.4147972317       -4.1663049709
  O        -5.6941045850        2.8353603679       -3.0281772987
  C        -5.4455360082        1.8677221295       -1.9049522226
  C        -4.1607444020        1.0810485178       -2.2240876109
  C        -2.8685383663        1.8545974880       -1.9223622502
  C        -6.6553389317        0.9827425149       -1.5576104602
  C        -7.8030180547        1.7236970877       -0.8382824574
  C        -1.6706886965        5.0139936565       -5.1740079606
  C        -0.8881846324        5.5803092115       -6.1998823606
  C        -0.1413346093        6.7676541005       -5.9894405648
  C        -0.1145646107        7.2951432077       -4.6525570072
  C        -0.8661035811        6.6849035395       -3.6347726391
  C        -1.6898792524        5.5475283323       -3.8762853123
  O         0.4233376693        7.2957247194       -7.0790679436
  C         1.6698922627        8.0785761880       -7.0885322764
  C         2.7904997638        7.0617444754       -7.3741274877
  C         3.0751189647        6.0325150904       -6.2536599616
  C         1.4971285795        9.0999158388       -8.2190436158
  C         0.2115278825        9.9386129460       -8.1198499838
  C         0.1172008027        4.5784417126      -10.9024448730
  C        -0.1196332137        3.4855619871      -11.7788895841
  C         0.3237090987        3.5269172620      -13.1275128701
  C         0.8325676214        4.7722354699      -13.5992864557
  C         1.0068506994        5.8659540375      -12.7312516903
  C         0.6928254207        5.7767648758      -11.3501269549
  O         0.2884578502        2.4546974306      -13.9714689156
  C         1.2878978037        1.3700354041      -13.7226142418
  C         0.8593471214        0.1385257232      -14.5224453610
  C        -0.4497272395       -0.5283455825      -14.0842214871
  C         2.6959218395        1.8721001301      -14.1238796076
  C         3.4822219316        2.5247738260      -12.9747707507
  C        -4.2342025161        1.3264808035      -12.1412529507
  C        -5.3755868667        1.2795473430      -11.3109188822
  C        -6.6743598101        1.3479634811      -11.8821643881
  C        -6.7609431466        1.4033465279      -13.3190493954
  C        -5.6054217227        1.4214641476      -14.1133889300
  C        -4.3050513121        1.3934057756      -13.5401141353
  O        -7.7061887600        1.4477519138      -11.0347695064
  C        -9.0700058453        1.0114424329      -11.3918250012
  C        -9.3261294948       -0.2024229487      -10.4820737267
  C        -8.3607075824       -1.3925794898      -10.6821993502
  C        -9.9919784972        2.2013575328      -11.1070841710
  C        -9.5792040336        3.5165056232      -11.8177765277
  H         8.9057441324        0.9270684602       -7.7711187324
  H         8.9713533309        0.4970966577       -9.5077618108
  H         8.4926835283        2.1508824563       -9.0068931763
  H         6.8858540931       -0.4592066717       -8.5519589611
  H         6.4509809775        1.1154370872       -7.8117445610
  H         4.3041156790        2.3507137647       -8.7333941443
  H         2.8888703564       -1.7575694061      -11.3388894001
  H         4.7411047635       -1.1090279239      -13.2431753758
  H         6.0809637173        0.0065637627      -12.8363397509
  H         7.4243559030       -2.3319277077      -12.4578536108
  H         6.2429247318       -2.9549967225      -13.6518987085
  H         7.3196694208       -1.5890564279      -14.0727315149
  H         3.6845082108        2.9372949204       -5.5216705113
  H         5.9789286275        0.3658246719       -3.8463591833
  H         5.8726077088        1.5446662882       -5.1934276195
  H         7.6055872081        1.9107751992       -2.6544041738
  H         8.2111140188        1.3940817148       -4.2511365714
  H         7.5445822858        3.0398125996       -4.0366314304
  H         1.1038574515        0.0220808765       -2.2918657239
  H        -0.4613934991       -3.7057548993      -11.8986803787
  H        -0.5116164035       -6.6614783534      -10.8522897359
  H        -2.1886745074       -7.3014570557      -10.7562280743
  H        -0.5393336167       -8.9966939189      -11.6805518659
  H        -1.8150315338       -8.6114114037      -12.8727210790
  H        -0.1805235056       -7.9040011253      -13.0472039420
  H        -4.9512877843       -3.9237473395       -9.5558559327
  H        -6.0121011899       -4.9445381349      -12.0015092872
  H        -4.8696172576       -5.6981859097      -13.1662636114
  H        -6.7474615844       -7.2983899624      -11.2806972428
  H        -7.0594419220       -6.9596569702      -13.0036484562
  H        -5.6716343411       -7.9856277563      -12.5418741410
  H        -2.3010827898       -2.0365080822       -2.4339089606
  H        -5.8149514785       -2.9951164865       -5.9515299730
  H        -6.6038110874       -3.7918124850       -1.6984318361
  H        -7.5647334678       -2.9706353706       -2.9734419945
  H        -8.5522027055       -5.1223087060       -1.5340026729
  H        -9.0584225902       -4.8274242468       -3.2232331262
  H        -7.7656256144       -6.0066459110       -2.8592707637
  H        -4.1410943883       -5.8315688096       -3.0125595132
  H        -2.4515749072       -5.2382844017       -2.8490186253
  H        -2.9192162311       -7.2646430273       -1.4094305873
  H        -2.4012613665       -5.8569518556       -0.4368776364
  H        -4.1306010653       -6.3344868395       -0.4900937484
  H         3.4392861168        2.1303586767       -0.3207425670
  H         2.1916610855        0.8491812872       -0.1703281534
  H         3.9423935758       -0.7380224044        0.7536720331
  H         5.1850265624        0.5389646672        0.5737835177
  H         3.8414656497        0.7483917853        1.7332951981
  H        -8.2208530258        1.1839927495       -7.4408479097
  H        -9.4931169448        1.7000717034       -5.2972839557
  H        -8.2830855230        2.4603764177       -3.2772853669
  H        -5.2619506504        2.5601549871       -1.0686157946
  H        -4.1740779659        0.1413189006       -1.6443469801
  H        -4.1885899485        0.7761899655       -3.2863955267
  H        -2.7820458541        2.0802739689       -0.8455496113
  H        -1.9829743197        1.2698185858       -2.2224651316
  H        -2.8525194751        2.8048746283       -2.4801008729
  H        -7.0117154101        0.4535094714       -2.4593118207
  H        -6.2707731968        0.1907694061       -0.8908654912
  H        -7.5939175307        1.8122005411        0.2410148020
  H        -7.9377644302        2.7505071585       -1.2195060673
  H        -8.7628644761        1.1929824707       -0.9480524607
  H         0.4536267866        8.2025612102       -4.4300816432
  H        -0.8234733775        7.1041629068       -2.6257888919
  H        -2.2898702744        5.0964534820       -3.0834193754
  H         1.8069486599        8.5784667639       -6.1137553697
  H         2.4928943179        6.5400336081       -8.3000794901
  H         3.6991478659        7.6368281389       -7.6203463208
  H         2.9286475216        5.0020640342       -6.6184149242
  H         4.1035360421        6.1225017101       -5.8739606712
  H         2.4065496035        6.1558441710       -5.3851910238
  H         2.3929433015        9.7437980303       -8.2181311623
  H         1.5123386276        8.5495284227       -9.1786823902
  H         0.0671495221       10.3506812247       -7.1050593130
  H         0.2462247718       10.7860044560       -8.8224800111
  H        -0.6730889047        9.3272391574       -8.3682326208
  H         1.1129885471        4.8434336139      -14.6527469753
  H         1.4002230312        6.8007559006      -13.1370297869
  H         0.8396323576        6.6218173289      -10.6737232665
  H         1.2603349525        1.1357773430      -12.6418728758
  H         0.8394202677        0.3992945602      -15.5960224102
  H         1.6870462135       -0.5847271461      -14.4050630571
  H        -0.4248455517       -0.7548535314      -13.0044882864
  H        -1.3186130762        0.1219697706      -14.2742751930
  H        -0.5973357933       -1.4761544636      -14.6289652603
  H         3.2628872625        1.0024672239      -14.5034072764
  H         2.5815226036        2.5530042194      -14.9832169429
  H         3.8006190481        1.7551240338      -12.2515822943
  H         4.3835014191        3.0400732905      -13.3397992902
  H         2.8801000412        3.2623950930      -12.4195851252
  H        -7.7350343807        1.5034369545      -13.8028900613
  H        -5.7099028954        1.5116000796      -15.1990443715
  H        -3.4007051292        1.4439498380      -14.1485808824
  H        -9.0946805087        0.7195869305      -12.4559359946
  H        -9.2506213589        0.1717135758       -9.4465445396
  H       -10.3750287392       -0.5232336113      -10.6170325967
  H        -8.1522006745       -1.8900118227       -9.7205992020
  H        -8.7635758371       -2.1476953332      -11.3769395605
  H        -7.3854363761       -1.0592709859      -11.0759013166
  H       -11.0124940461        1.8964343017      -11.3910105988
  H       -10.0026024405        2.3491199528      -10.0132055696
  H        -9.2539173516        4.2760985237      -11.0903846705
  H        -8.7366701649        3.3729997417      -12.5141062783
  H       -10.4100008686        3.9433740168      -12.3974772088
