     165
 i =       51, E =      -790.3399719896
  C         2.3415270435        0.5643061718        0.8847038005
  C         1.4653102755       -0.5225916436        0.2329941770
  C         1.7561298036       -0.8593051720       -1.2471175619
  O         0.9387608196       -0.0007647352       -2.1550376635
  C         1.2848510113        1.3083756854       -2.2994229781
  C         0.5556036491        2.2974467399       -1.5762620467
  C         0.8914185112        3.6624618330       -1.6361155228
  C         1.9643854706        4.1123453984       -2.4420379356
  C         2.6427334829        3.1546757173       -3.2101930838
  C         2.3123766722        1.7650483689       -3.1671628281
  C         3.1663773443        1.1290799661       -4.1822936466
  N         2.9596428334       -0.0709519318       -4.7361449102
  C         3.6979312549       -0.5721532688       -5.7429592486
  C         3.1765935327       -1.6046852871       -6.6479139370
  C         1.8772285760       -2.1329550908       -6.7566348130
  C         1.6225923482       -3.0191030493       -7.8294433761
  C         2.6574417753       -3.3992960976       -8.7013904388
  C         3.9970845166       -2.9292413508       -8.5409848311
  C         4.2361133257       -1.9373106305       -7.5420176523
  C         5.3365639052       -1.0067436617       -7.2201549152
  N         4.9892536229       -0.2401397423       -6.1070884076
 Dy         6.3108043676        1.2828581218       -4.8531207959
  N         4.0969248499        2.0532989811       -4.6623103075
  C         3.7468418859        3.2927767884       -4.1723828736
  N         4.2578550413        4.4704223857       -4.5749764843
  C         5.3551111233        4.5629453689       -5.3375767834
  N         6.2844354830        3.5481942638       -5.5762177738
  C         7.2921107275        4.0753576371       -6.3547039034
  N         8.2644473454        3.4577819878       -7.0451529724
  C         8.2058883192        2.1731820362       -7.4281906642
  N         7.2389191212        1.2525685478       -7.0269374364
  C         7.2933770735        0.1716683380       -7.8864561566
  N         6.4490574492       -0.8765440185       -7.9655682751
  C         8.4142564510        0.3597515442       -8.8296113547
  C         9.0356909515        1.6009671197       -8.5025772444
  C        10.1688482258        2.0504957218       -9.2586881368
  C        10.5851784025        1.2297467314      -10.3555093231
  C         9.9269104487        0.0315816981      -10.6769899267
  C         8.8313449730       -0.4310036458       -9.9119305625
  O        10.7530595634        3.2450845256       -8.9867378833
  C        12.2158983753        3.4057386432       -8.6374946973
  C        12.3225613721        3.2178306167       -7.1122959827
  C        11.5457571708        4.2576556889       -6.2910389544
  C        13.2188681494        2.5550375012       -9.4297308354
  C        13.5420170585        3.0776419833      -10.8413336000
  C         7.1121961578        5.5271392154       -6.4770814320
  C         5.8262721655        5.8191126476       -5.9536491565
  C         5.3593914856        7.1738241951       -6.0362088505
  C         6.3226710228        8.1807024769       -6.3925735903
  C         7.6039146343        7.8531202263       -6.8594633583
  C         7.9984908745        6.4978644090       -6.9770299889
  O         4.1146395068        7.6406087155       -5.8294879523
  C         2.9158597915        7.0737278703       -6.5348317127
  C         1.6933327820        7.6158146252       -5.7900452057
  C         1.5053678920        7.1117091899       -4.3549481856
  C         2.9421881462        7.6042616205       -7.9865281243
  C         3.9767582300        6.9933378540       -8.9398291220
  O         8.5499368009        1.3769984610       -4.1535740466
  C         9.7537892302        0.9872202306       -4.2523662242
  N        10.6545729014        1.0267096407       -3.2589047709
  C        10.3021067648        1.5542571804       -1.9335465953
  C        12.0316943120        0.5465821860       -3.4545921552
  O         4.2935636917        3.0510815268       -8.3539769381
  C         3.3104496327        2.6941059506       -9.0291378406
  N         3.2604905710        2.6868725644      -10.4041735099
  C         4.4196599394        3.0993814636      -11.1937440420
  C         2.0507065530        2.2734944093      -11.1146211230
  N         6.1512310774        1.5342410264       -2.3170675914
  C         6.3082990988        0.4537802723       -1.4954089720
  C         6.4287363498       -0.8777889360       -2.1595228758
  N         6.5636973100       -0.8764896471       -3.5196376653
  C         6.7448644622       -2.0595520149       -4.1484360352
  C         6.7498089725       -3.3011216079       -3.4946855936
  C         6.5589371001       -3.3126138217       -2.1023532010
  C         6.4159491796       -2.0892654281       -1.4248045607
  C         6.3567044041        0.6033725817       -0.0904334560
  C         6.2408545854        1.8825278761        0.4784676404
  C         6.0751082431        2.9911370486       -0.3711303531
  C         6.0383925565        2.7618546549       -1.7569469209
  O         4.9183750945       -3.4600583294       -9.3844406207
  C         5.9893562554       -4.3591147804       -8.8681714790
  C         5.3619620063       -5.5746140592       -8.1501299902
  C         4.9810848745       -5.4014041225       -6.6707447158
  C         6.7514707116       -4.8038123553      -10.1219074541
  C         7.4609961605       -3.6887310368      -10.8996721242
  C         1.3659777748       -2.3009924977       -1.5926461014
  C         1.7320489035       -2.7426258688       -3.0155170334
  H         2.0043476204        0.7549542205        1.9159022049
  H         3.3968110469        0.2462526934        0.9385782603
  H         2.3060308507        1.5252270092        0.3457604459
  H         1.5796058106       -1.4537694858        0.8146894345
  H         0.3959416065       -0.2606147149        0.3117824242
  H         2.8213243220       -0.6764728744       -1.4964104723
  H        -0.2638168918        1.9577534565       -0.9375941659
  H         0.3268150105        4.3792344698       -1.0334738928
  H         2.2510314868        5.1647256029       -2.4721297563
  H         1.0926773263       -1.8444129005       -6.0531962537
  H         0.6208520647       -3.4333238836       -7.9728662157
  H         2.4742942197       -4.1166648101       -9.5054258862
  H        11.3921661303        1.5834110850      -10.9970323281
  H        10.2631098971       -0.5413955286      -11.5455084692
  H         8.2978872747       -1.3466969854      -10.1678305913
  H        12.3678229599        4.4700037163       -8.8808357209
  H        12.0096717236        2.1863098063       -6.8623547813
  H        13.3963953316        3.2814983472       -6.8670027112
  H        11.6437696272        4.0596274297       -5.2099907513
  H        11.9436624277        5.2702232880       -6.4735850032
  H        10.4745016064        4.2524944636       -6.5503037582
  H        14.1499399934        2.5585523111       -8.8369601429
  H        12.9019134731        1.4968717042       -9.4435712106
  H        14.2688516287        2.4217499423      -11.3440693359
  H        12.6531402235        3.1575476777      -11.4880247606
  H        13.9892534278        4.0832794738      -10.7866474514
  H         5.9877467373        9.2202648683       -6.3579369091
  H         8.2848082385        8.6488465626       -7.1713563621
  H         8.9683852322        6.2018458378       -7.3838793696
  H         2.9884159072        5.9745538164       -6.4901996685
  H         1.7434169457        8.7177431130       -5.8110074637
  H         0.8132554947        7.3378145046       -6.3947860707
  H         1.3224824020        6.0251125617       -4.3422408358
  H         2.3875112353        7.3270646479       -3.7305043855
  H         0.6341464397        7.6024927692       -3.8943899448
  H         1.9276323492        7.4257373857       -8.3877739266
  H         3.0558202972        8.7028969491       -7.9416614726
  H         3.8523992603        5.9012444706       -9.0314693146
  H         3.8677924478        7.4380957569       -9.9420799383
  H         5.0148180615        7.1885553021       -8.6219051904
  H        10.1468594684        0.5712350480       -5.2033253871
  H        10.3342654543        0.7415150527       -1.1904324357
  H        11.0275210024        2.3289029766       -1.6440557477
  H         9.2929666395        1.9818806737       -1.9792543184
  H        12.2802644336       -0.1938432298       -2.6801564507
  H        12.1320049320        0.0735145327       -4.4402408884
  H        12.7421138033        1.3883185450       -3.3812367702
  H         2.3613710862        2.3450732078       -8.5670145617
  H         5.2429389492        3.3418752284      -10.5084260160
  H         4.7264983272        2.2832628403      -11.8701596790
  H         4.1671432173        3.9810254602      -11.8069495099
  H         1.2874739831        1.9499550951      -10.3913078820
  H         1.6508650116        3.1131767421      -11.7089985359
  H         2.2714169443        1.4369385066      -11.7986964598
  H         6.8683274249       -2.0108438532       -5.2388218461
  H         6.8871179430       -4.2215953395       -4.0626648627
  H         6.5269173312       -4.2553581956       -1.5489699552
  H         6.2741327151       -2.0871808828       -0.3456847024
  H         6.5061546223       -0.2611396094        0.5588793024
  H         6.2767638611        2.0094833516        1.5634097932
  H         5.9812890587        4.0058636672        0.0204077575
  H         5.9097416591        3.5994880463       -2.4488957468
  H         6.6293487527       -3.7610095559       -8.1919895942
  H         4.4871273858       -5.8968180834       -8.7430492697
  H         6.0914515079       -6.3985897987       -8.2290491252
  H         4.5497513743       -6.3374371418       -6.2809375446
  H         5.8710090555       -5.1686405997       -6.0599929422
  H         4.2348606713       -4.6080302730       -6.5035088408
  H         7.4918277385       -5.5577036761       -9.8039626333
  H         6.0343899408       -5.3313646194      -10.7752875423
  H         8.3232645348       -3.3093038586      -10.3271941057
  H         7.8466506170       -4.0698243082      -11.8579770207
  H         6.7752844211       -2.8536312195      -11.1186347051
  H         1.8577432659       -2.9594837682       -0.8556138528
  H         0.2803331180       -2.4108603489       -1.4252130084
  H         1.3922242798       -3.7720280685       -3.2051211812
  H         1.2704286441       -2.0748268222       -3.7574536890
  H         2.8242721481       -2.7121194414       -3.1763691636
