     233
 i =       17, E =     -1123.5245878855
  C         8.4297276975        1.0935438132       -8.7544265065
  C         6.9748857117        0.6576675787       -8.6739503922
  O         6.2953207301        1.0235698550       -9.9344258668
  C         4.9707288275        0.6738687463       -9.9701266767
  C         4.0078318137        1.4513690646       -9.2800232953
  C         2.6587896196        1.0684473457       -9.3634633104
  C         2.2463371882       -0.0650998159      -10.1024224681
  C         3.1818037126       -0.8409485096      -10.8030802303
  C         4.5556140822       -0.4732907900      -10.7291263239
  O         5.5071254308       -1.2592556244      -11.3070529201
  C         5.7367706164       -1.0147013098      -12.7500321639
  C         6.7383041431       -2.0437034620      -13.2710088666
  C         0.8039569213       -0.2537148755       -9.8085593145
  N         0.0953387516       -1.2452560880      -10.3723061509
  C        -1.1581549370       -1.5411059210       -9.9890321893
  N        -1.9154503622       -0.9101366737       -9.0127189901
 Dy        -1.8136046414        1.3906793985       -8.0238799851
  N         0.3830846044        0.6767429431       -8.8823684678
  C         1.4916805913        1.4519136928       -8.5495148414
  N         1.6714979187        2.2227177616       -7.4655003084
  C         1.0387854294        1.9116187420       -6.3122608226
  C         1.8059392934        1.9197573586       -5.0639361542
  C         3.1415362136        2.2904063816       -4.8255586377
  C         3.7566133318        1.8294853544       -3.6397326836
  O         5.0493191037        2.1650833152       -3.3406712498
  C         6.0757549562        1.4367925985       -4.0930121218
  C         7.4463622318        1.9880850878       -3.7317726967
  C         3.0083357880        1.0361281283       -2.6989220366
  C         1.6496470105        0.6793724667       -2.9624435023
  C         1.0709447140        1.1133947955       -4.1648582536
  C        -0.1882181960        0.7507982952       -4.8725899034
  N        -1.1131360259       -0.0404710823       -4.3143944477
  C        -2.1515699692       -0.5443665662       -5.0018117026
  N        -2.4577047127       -0.3604072337       -6.3321563488
  C        -3.5301564864       -1.2148487368       -6.6093103072
  N        -3.9078180738       -1.6866385791       -7.8091930828
  C        -3.0558543181       -1.6885401553       -8.8522723906
  C        -3.1145023476       -2.7711761976       -9.8491972758
  C        -1.8688351029       -2.7250970235      -10.5181760639
  C        -1.4573306479       -3.7671601931      -11.3620968067
  C        -2.3420997937       -4.8682279004      -11.5446994036
  O        -1.9372052373       -5.9404103852      -12.2858934645
  C        -1.3607531864       -7.0212205928      -11.4381852898
  C        -0.9488373066       -8.1748907366      -12.3320086096
  C        -3.6404110346       -4.8795494537      -10.9335583442
  C        -4.0231060758       -3.8292238058      -10.0520722457
  O        -4.4517853075       -5.9674992955      -11.1118308284
  C        -5.4084783596       -5.8541284775      -12.2358616565
  C        -6.2630294495       -7.1099493856      -12.2744134467
  C        -4.0502459314       -1.8198660215       -5.3793618824
  C        -3.1025811230       -1.4994885119       -4.3780517259
  C        -3.0783367559       -2.2105395478       -3.1688902717
  C        -4.0535303131       -3.2255791555       -2.9561091865
  C        -5.1315344678       -3.4117915219       -3.8956758697
  C        -5.0815113030       -2.7522415992       -5.1497844219
  O        -6.1351115481       -4.3174025353       -3.6841481730
  C        -7.1223509133       -3.9464432502       -2.6362913687
  C        -8.1907355595       -5.0403646403       -2.5664999740
  O        -3.8908737252       -4.0504124083       -1.8827731314
  C        -3.4015815887       -5.3992749720       -2.2953112683
  C        -3.2004205563       -6.2547668065       -1.0598967615
  N        -0.1825218753        1.2804164417       -6.1501652072
  O         3.6845298967        0.5563013119       -1.6243017949
  C         3.2743985401        1.0492777221       -0.2974328873
  C         4.1186870031        0.3495420584        0.7556346062
  N        -4.1064306709        2.0852669342       -7.2050754772
  C        -5.3431455295        1.6695563371       -7.6332057170
  N        -5.7251047456        1.3306588635       -8.8717193289
  C        -4.8971411108        1.3341389581       -9.9270864022
  N        -3.5018768754        1.4044048176       -9.9067716120
  C        -3.0986572339        1.4778804634      -11.2189173493
  N        -1.8877839381        1.7848169617      -11.7209691317
  C        -1.0775221887        2.6198594587      -11.0678317831
  N        -1.2195207675        3.0304786332       -9.7438955202
  C        -0.5212939019        4.2060178340       -9.6109709422
  N        -0.3929282503        4.9746830353       -8.5298140129
  C        -1.0116540523        4.7150807909       -7.3672873571
  N        -1.8540334607        3.6458878954       -7.0751911733
  C        -2.3556472259        3.8623004399       -5.8114730470
  N        -3.3835777056        3.2546508519       -5.1966000206
  C        -4.2634040741        2.5211830868       -5.8865677044
  C        -5.6180836696        2.2266581464       -5.3936136910
  C        -6.3279295035        1.7545588664       -6.5340400124
  C        -7.7101349018        1.5373110528       -6.5402947688
  C        -8.4105307330        1.8020006725       -5.3318053475
  C        -7.7299274848        2.2179980468       -4.1808281190
  C        -6.3080954749        2.4089296954       -4.1592304513
  O        -5.6981005091        2.8358717281       -3.0233887752
  C        -5.4530877039        1.8578741918       -1.8945695000
  C        -4.1651381462        1.0728490974       -2.2151313530
  C        -2.8758872570        1.8568208283       -1.9176994109
  C        -6.6635965390        0.9791121610       -1.5441077591
  C        -7.8115620770        1.7265152894       -0.8268107680
  C        -1.6827446736        5.0165741166       -5.1839286555
  C        -0.8874497720        5.5801624898       -6.2057936954
  C        -0.1316503741        6.7599756715       -5.9949923919
  C        -0.1186437560        7.2922129626       -4.6569608017
  C        -0.8752714654        6.6826981886       -3.6442281336
  C        -1.7054863775        5.5460784799       -3.8900640789
  O         0.4289592608        7.2929202867       -7.0821689261
  C         1.6771278236        8.0808239889       -7.0912237873
  C         2.8008377391        7.0730084454       -7.3742795057
  C         3.0750571770        6.0415701981       -6.2497304757
  C         1.5016413868        9.1122309325       -8.2097634535
  C         0.2151486339        9.9497098807       -8.1104142258
  C         0.1157581568        4.5673311939      -10.9012563234
  C        -0.1185236156        3.4740421462      -11.7767721493
  C         0.3273452117        3.5217030864      -13.1216113372
  C         0.8301919726        4.7727047061      -13.5920777279
  C         1.0035975866        5.8670099689      -12.7263538152
  C         0.6897002310        5.7662761368      -11.3431861178
  O         0.2834653663        2.4492183206      -13.9617305618
  C         1.2955196514        1.3709213872      -13.7240748388
  C         0.8677314161        0.1462416215      -14.5285884982
  C        -0.4462519449       -0.5153598953      -14.0921959496
  C         2.6976338759        1.8716287503      -14.1336732019
  C         3.4873267541        2.5300951360      -12.9886923845
  C        -4.2420883742        1.3447569007      -12.1325145756
  C        -5.3856117642        1.3068693217      -11.3025120024
  C        -6.6826713266        1.3610354823      -11.8775767945
  C        -6.7683265709        1.4037525054      -13.3160749860
  C        -5.6116268884        1.4174874077      -14.1064682643
  C        -4.3102948028        1.4007850417      -13.5267484923
  O        -7.7142290285        1.4593662276      -11.0338511310
  C        -9.0801561799        1.0123667399      -11.3841521174
  C        -9.3405046254       -0.2004721033      -10.4759570804
  C        -8.3745171219       -1.3891988309      -10.6876465717
  C       -10.0055000071        2.1977464287      -11.1088629390
  C        -9.5936460652        3.5131500808      -11.8221080830
  H         8.9036211045        0.9084809060       -7.7747013877
  H         8.9790840183        0.5162184981       -9.5120681682
  H         8.5196736275        2.1641196766       -8.9856255954
  H         6.8876585362       -0.4353654576       -8.5441238015
  H         6.4471121962        1.1599437822       -7.8410285647
  H         4.3212603500        2.3356549106       -8.7231220584
  H         2.8937695476       -1.7498868287      -11.3372270713
  H         4.7614888083       -1.0842266221      -13.2619016766
  H         6.1233103144        0.0136032955      -12.8483602929
  H         7.4549833331       -2.3144302076      -12.4793517355
  H         6.2516018536       -2.9591692565      -13.6377886002
  H         7.3158775649       -1.6130930209      -14.1086166953
  H         3.6847020642        2.9345164938       -5.5144799583
  H         5.9928908153        0.3681629323       -3.8275440624
  H         5.8793684664        1.5431452468       -5.1778061181
  H         7.6333193466        1.9047364674       -2.6521762539
  H         8.2117421793        1.3941775336       -4.2591341497
  H         7.5583109622        3.0412268373       -4.0327629484
  H         1.1132435645        0.0055261363       -2.2870471083
  H        -0.4748880410       -3.7837179997      -11.8358136455
  H        -0.4981498772       -6.5890254024      -10.8994922589
  H        -2.1274601635       -7.3208053888      -10.7031874022
  H        -0.5038082845       -8.9661306880      -11.7043083028
  H        -1.8153303499       -8.5983804401      -12.8587198402
  H        -0.1943641873       -7.8586028943      -13.0671105018
  H        -4.9737743607       -3.8734482268       -9.5179850315
  H        -6.0229391082       -4.9537088021      -12.0613684584
  H        -4.8378202896       -5.7201954274      -13.1734756096
  H        -6.7642782725       -7.2802346696      -11.3097317733
  H        -7.0429511346       -6.9956094289      -13.0440274262
  H        -5.6652370508       -7.9976646554      -12.5302913680
  H        -2.2867808744       -2.0906469452       -2.4301710142
  H        -5.8321009601       -2.9920667036       -5.9043824165
  H        -6.5865541579       -3.8281340424       -1.6804650656
  H        -7.5528025430       -2.9759243142       -2.9386134699
  H        -8.5916273918       -5.1093483949       -1.5391127941
  H        -9.0390485291       -4.8455166880       -3.2426071965
  H        -7.7637033994       -6.0211540575       -2.8231017330
  H        -4.1428289249       -5.8281655897       -2.9895550564
  H        -2.4482253097       -5.2497918430       -2.8393602126
  H        -2.8853203812       -7.2607439765       -1.3844858447
  H        -2.4142150753       -5.8460308904       -0.4090693281
  H        -4.1327559296       -6.3555538397       -0.4881029938
  H         3.4479321436        2.1377866980       -0.2860854921
  H         2.1982935398        0.8507117994       -0.1611059272
  H         3.9356771647       -0.7341825607        0.7739946401
  H         5.1924516301        0.5267469064        0.5869682127
  H         3.8631745891        0.7549595012        1.7477121682
  H        -8.2201247458        1.2127566018       -7.4476538112
  H        -9.4997474531        1.7093693184       -5.2960266508
  H        -8.2878423226        2.4392311903       -3.2694944059
  H        -5.2616273314        2.5509178939       -1.0622033577
  H        -4.1775222882        0.1319943409       -1.6352346055
  H        -4.1883920119        0.7585090517       -3.2754044695
  H        -2.7967446739        2.0900315429       -0.8432795682
  H        -1.9830464836        1.2750142441       -2.2034318988
  H        -2.8658750278        2.7988949497       -2.4876017390
  H        -7.0135549239        0.4343487482       -2.4387727045
  H        -6.2773715525        0.1960278465       -0.8674852085
  H        -7.5933534557        1.8204481233        0.2481103647
  H        -7.9571661351        2.7478904743       -1.2161439541
  H        -8.7690385846        1.1862303077       -0.9191707993
  H         0.4515825934        8.1950192235       -4.4223528304
  H        -0.8349037577        7.1017103628       -2.6349873362
  H        -2.3289405543        5.1085237502       -3.1060604597
  H         1.7793036660        8.5735494927       -6.1092405690
  H         2.5012483262        6.5530952177       -8.3012232394
  H         3.7034548349        7.6595738807       -7.6058243734
  H         2.9350770740        5.0110266139       -6.6158215959
  H         4.1058755680        6.1282680625       -5.8739498161
  H         2.4092489488        6.1609569188       -5.3786647438
  H         2.3980374621        9.7551255536       -8.1868932219
  H         1.5221606720        8.5733430009       -9.1753907992
  H         0.0782297968       10.3821040527       -7.1034496860
  H         0.2397985242       10.7829697416       -8.8287917631
  H        -0.6710763807        9.3392180768       -8.3393472680
  H         1.1100020452        4.8489125300      -14.6455599894
  H         1.4049989730        6.8024028709      -13.1254250516
  H         0.8053500740        6.6101022832      -10.6614078844
  H         1.2727004718        1.1356448035      -12.6411129704
  H         0.8430380751        0.4194400007      -15.5980617764
  H         1.6918226025       -0.5816955990      -14.4171156559
  H        -0.4221669063       -0.7630844386      -13.0165309154
  H        -1.3125783672        0.1381008929      -14.2710737238
  H        -0.6040045915       -1.4542905561      -14.6473794470
  H         3.2716454844        1.0062549914      -14.5063157812
  H         2.5757460774        2.5432110042      -14.9974647088
  H         3.7983228069        1.7639154073      -12.2600072497
  H         4.3981133497        3.0328188133      -13.3492694925
  H         2.8953907936        3.2802319805      -12.4384292494
  H        -7.7433295746        1.4730338611      -13.8065952284
  H        -5.7197658951        1.4736618163      -15.1956813434
  H        -3.4033174513        1.4529972256      -14.1319230614
  H        -9.0905503986        0.7218850835      -12.4475501816
  H        -9.2625594124        0.1680974136       -9.4383201492
  H       -10.3878529536       -0.5128409296      -10.6252192876
  H        -8.1811076067       -1.9139589179       -9.7359137180
  H        -8.7735752998       -2.1302620161      -11.3987810392
  H        -7.3923743670       -1.0584685497      -11.0646025205
  H       -11.0221841961        1.8873378064      -11.4011446928
  H       -10.0248407575        2.3499816852      -10.0163023769
  H        -9.2622364491        4.2739690002      -11.0991987428
  H        -8.7563847731        3.3683450838      -12.5249128572
  H       -10.4244700718        3.9468977594      -12.3972866733
