      51
 i =       31, E =      -518.3190401218
  C         1.3932620986       -1.3486452225       -0.2667418832
  O         0.3845027335       -0.6561737933        0.3546062632
 Dy        -0.7442170634        0.7897151598        1.8515164684
  O         0.4684852777        2.0813474196        0.1003753331
  O        -2.5059586785       -0.5535637258        2.5040332569
  C        -3.3008943857       -0.7770553243        3.4717132670
  C        -4.4386056841       -1.7362181137        3.3388384738
  C        -3.1266798683       -0.0634332342        4.7540200029
  C        -2.0872118747        0.9537161755        5.0281883070
  O        -1.3118532053        1.3424950963        4.1056464954
  C        -1.9977753744        1.4948776281        6.4200948091
  O        -2.2813381226        0.8388214638       -0.0093691456
  C        -3.0111841470        1.6149218107       -0.6875719842
  C        -3.5363864654        1.2202414078       -2.0301187020
  C        -3.3499823910        2.9635284708       -0.1485991853
  C        -2.8251549189        3.4299057063        1.1315064395
  O        -1.8878910972        2.8602481694        1.7462067056
  C        -3.5191697432        4.6455426242        1.8329857435
  F        -4.8623756871        4.5257001834        1.6612876970
  F        -3.1266962589        5.8265066587        1.3147579949
  F        -3.2050863527        4.5850606850        3.1399845776
  O         0.6245489345       -0.5242702044        3.3075591282
  C         1.6367039496       -0.4567428628        4.0582047442
  C         2.0057036169       -1.5516191612        5.0037511019
  C         2.5198958769        0.7387266079        4.0198721139
  C         2.2334890870        1.8893394584        3.1747569069
  O         1.1295219566        2.0795457338        2.6072323161
  C         3.3609910050        2.9286750402        2.8668863795
  F         4.5590723941        2.3046799765        2.7758010069
  F         3.3997775515        3.8787053010        3.8192882145
  F         3.0700678250        3.4804073785        1.6623300172
  H         2.2943989608       -1.5225800557        0.3442475375
  H         0.9807825024       -2.2967240866       -0.7028328599
  H         1.6517044219       -0.8142870854       -1.2248223044
  H         0.4236310750        2.1083362947       -0.8747163135
  H         1.0770430730        2.8006895714        0.3777552325
  H        -4.7836213977       -2.1119841583        4.3132438667
  H        -5.2943195909       -1.1941895006        2.8817079040
  H        -4.1811947626       -2.5597908240        2.6583911554
  H        -3.8093572007       -0.3180120854        5.5710830901
  H        -1.9894039852        0.6667010575        7.1524034252
  H        -1.1255175175        2.1452564180        6.5545518604
  H        -2.9185150746        2.0683280737        6.6477771796
  H        -3.4185109571        0.1414068358       -2.1894762045
  H        -4.5862426344        1.5310805385       -2.1633649605
  H        -2.9662869119        1.7645722357       -2.8122891980
  H        -4.0436871645        3.6031545719       -0.7064282978
  H         2.0171055302       -1.1572092049        6.0386257394
  H         1.3124788460       -2.3978012570        4.9292770589
  H         3.0432897480       -1.8887521639        4.8190899191
  H         3.4346500225        0.7509548092        4.6228872061
