     113
 i =       42, E =      -883.4321905799
 Cl        -2.2747717970        1.6957772790      -13.2685696452
  C        -1.5837086907        1.1953906803      -11.7827416045
  C        -0.4669595459        1.8985999763      -11.2570230512
  C         0.0921625884        1.4902392060      -10.0444370924
  C        -0.4200956762        0.3499560351       -9.3448363693
  C        -1.5541752391       -0.3326639168       -9.8908514273
  C        -2.1386119436        0.0877227204      -11.0867290765
  C         0.2366321152       -0.1077312577       -8.1150858298
  C         0.5610045106        0.9052428048       -7.1264477208
  C         0.0728072767        2.2844115388       -7.1253167230
  C         0.6165884885        2.8943041978       -6.0159035021
  C         1.4208709261        1.8836070324       -5.3342370913
  N         1.3433118984        0.6877374802       -6.0236174914
 Dy         2.7977310353       -1.0889371470       -5.7134483388
  N         1.0583108008       -2.1281003541       -6.8514035631
  C         0.5064913390       -1.5236220191       -7.9732541027
  C         0.2370220979       -2.5370402068       -8.9843632324
  C         0.5624409795       -3.7583174243       -8.4310528265
  C         1.0667048443       -3.4935472310       -7.0920353401
  C         1.5186239876       -4.5158683272       -6.1787290250
  C         2.2409876233       -4.2925298573       -4.9442006399
  N         2.6300105122       -3.0522280034       -4.4849578279
  C         3.3527422889       -3.2537824727       -3.3312689641
  C         3.3616247595       -4.6767082460       -2.9991797572
  C         2.6488058820       -5.3194460649       -3.9912845424
  C         3.9969076968       -2.2241715164       -2.5436822818
  C         3.6854997371       -0.8095498213       -2.6056716374
  N         2.8608312241       -0.2449264507       -3.5602072289
  C         2.8237829819        1.1160810836       -3.3144097114
  C         2.1571038965        2.1060024332       -4.1240294766
  C         2.2998947548        3.5177983712       -3.6889967329
  C         1.7660126691        3.9610499235       -2.4474386620
  C         1.8694568107        5.3067056788       -2.0733725958
  C         2.5707031416        6.2120335640       -2.9162963069
  C         3.1485495282        5.7770652806       -4.1350870893
  C         2.9842187852        4.4439287690       -4.5301393710
 Cl         2.7211738421        7.8570962464       -2.4414551690
  C         3.6572228636        1.4245535724       -2.1573568777
  C         4.2122000628        0.2393181010       -1.7334370523
  C         5.0842979877       -2.6986328947       -1.6735892026
  C         5.2198961445       -2.3436600194       -0.2976813668
  C         6.2560047102       -2.8707128791        0.4776624840
  C         7.2101118548       -3.7415869637       -0.1195180202
  C         7.1226062550       -4.0774820928       -1.4943401278
  C         6.0599891884       -3.5774067230       -2.2505215051
 Cl         8.4735851761       -4.3930311992        0.8362458497
  C         1.2380740098       -5.9130535428       -6.5469329611
  C        -0.0952464937       -6.3118857111       -6.8734341411
  C        -0.3876876653       -7.6447815514       -7.1760456524
  C         0.6636432121       -8.5981649951       -7.2019417332
  C         2.0014586075       -8.2173164333       -6.9170843963
  C         2.2776720064       -6.8920823903       -6.5695707302
 Cl         0.3156412102      -10.2349530389       -7.5862933754
  O        -0.0993554296       -0.5256303155       -3.0464153331
  C        -0.6513712254       -1.4097067508       -2.3210611201
  C        -1.5632401198       -2.3492779393       -2.8828961686
  C        -1.8051554781       -2.0902749872       -4.2545379979
  O        -1.2263104637       -1.1801369015       -4.9205248977
  C        -2.9120553224       -2.8882107333       -5.0091368940
  F        -3.0239098420       -4.1532267592       -4.5153423056
  F        -4.0934497756       -2.2374248388       -4.8632643655
  F        -2.6196900029       -2.9889036491       -6.3350196828
  C        -0.4094433768       -1.3535461356       -0.8068186497
  C        -0.3017589586       -2.6666685493       -0.0084453926
  C         0.3509269168       -2.1602114657        1.3065634111
  C         1.0027829860       -0.8060017055        0.9130006845
  O         0.8081543690       -0.6458262221       -0.5277544380
  O         4.5555447176       -2.2935007953       -6.5234986170
  C         5.2990719947       -2.1417948138       -7.5590310659
  C         5.4117083864       -0.9675147468       -8.3324748458
  C         4.7700941373        0.2246176636       -7.9234011872
  O         4.0712880591        0.4015782490       -6.8607351626
  C         4.8726655490        1.4949457229       -8.7983062500
  F         5.2074081973        1.1887922015      -10.0722706150
  F         5.7726323810        2.3597756854       -8.2691199718
  F         3.6548318624        2.1370046660       -8.8280378590
  C         6.1346820657       -3.3899439519       -7.9500021653
  F         5.4851050489       -4.5188146228       -7.5587135261
  F         7.3418181242       -3.3372103002       -7.3134818032
  F         6.3364225427       -3.4588512105       -9.2925126478
  H        -0.0449733391        2.7422049183      -11.8081890998
  H         0.9794086160        2.0050287319       -9.6663043223
  H        -2.0167877184       -1.1487924390       -9.3303532339
  H        -3.0219671018       -0.4164910274      -11.4854916041
  H        -0.6319926913        2.7213093020       -7.8301777803
  H         0.4381619340        3.9134129960       -5.6753760972
  H        -0.1079217229       -2.3643777289      -10.0011617995
  H         0.5180949558       -4.7273908381       -8.9242587813
  H         3.7967002001       -5.1299850878       -2.1089360788
  H         2.4104143424       -6.3820797388       -4.0389518232
  H         1.2181577326        3.2624563589       -1.8088006201
  H         1.4145737679        5.6679628270       -1.1486163504
  H         3.7210596744        6.4748965636       -4.7497957912
  H         3.4347844314        4.0962568246       -5.4643884781
  H         3.8415227911        2.4161234683       -1.7500719486
  H         4.9314452681        0.1197066541       -0.9274638403
  H         4.4637485615       -1.7187566357        0.1830980827
  H         6.3326812463       -2.6371111146        1.5417855021
  H         7.8799697431       -4.7184331386       -1.9524957409
  H         6.0077766785       -3.8109812909       -3.3173031205
  H        -0.9101536054       -5.5839525139       -6.8201663363
  H        -1.4132335485       -7.9604409375       -7.3793161990
  H         2.8044184305       -8.9546412879       -6.9802028762
  H         3.3114734972       -6.5865084429       -6.3873683305
  H        -2.0603887572       -3.1395645769       -2.3269561136
  H        -1.2718785491       -0.7560626820       -0.4348710872
  H        -1.2757008507       -3.1469272674        0.1594225032
  H         0.3552054249       -3.3771844271       -0.5354202631
  H        -0.4065188873       -2.0123724150        2.0901617586
  H         1.0862605093       -2.8796182533        1.6942438007
  H         0.5090842253        0.0427495799        1.4192417969
  H         2.0859948223       -0.7481422338        1.0990896554
  H         6.0145562943       -0.9788168289       -9.2407950516
